* File: NAND3.pex.netlist
* Created: Mon Nov 15 22:25:08 2021
* Program "Calibre xRC"
* Version "v2018.1_36.27"
* 
.include "NAND3.pex.netlist.pex"
.subckt NAND3_PEX  A VSS B VDD C VOUT
* 
* VOUT	VOUT
* C	C
* VDD	VDD
* B	B
* VSS	VSS
* A	A
MM1 NET5 B NET4 NET3 NFET L=2e-08 W=5.28e-07 NFIN=14 ADEJ=4.928e-15
+ ASEJ=4.928e-15 PDEJ=1.344e-06 PSEJ=1.344e-06
MM0 NET4 A N_VSS_MM0_s NET3 NFET L=2e-08 W=5.28e-07 NFIN=14 ADEJ=2.464e-15
+ ASEJ=2.128e-15 PDEJ=6.16e-07 PSEJ=5.32e-07
MM2 N_VOUT_MM2_d C NET5 NET3 NFET L=2e-08 W=5.28e-07 NFIN=14 ADEJ=4.256e-15
+ ASEJ=2.464e-15 PDEJ=1.176e-06 PSEJ=6.16e-07
MM4 N_VOUT_MM3_d B N_VDD_MM4_s NET6 PFET L=2e-08 W=2.08e-07 NFIN=6
+ ADEJ=2.112e-15 ASEJ=2.112e-15 PDEJ=5.76e-07 PSEJ=5.76e-07
MM3 N_VOUT_MM3_d A N_VDD_MM3_s NET6 PFET L=2e-08 W=2.08e-07 NFIN=6
+ ADEJ=1.056e-15 ASEJ=9.12e-16 PDEJ=2.64e-07 PSEJ=2.28e-07
MM5 N_VOUT_MM5_d C N_VDD_MM4_s NET6 PFET L=2e-08 W=2.08e-07 NFIN=6
+ ADEJ=1.824e-15 ASEJ=1.056e-15 PDEJ=5.04e-07 PSEJ=2.64e-07
c_5 A VSS 0.0133156f
c_12 B VSS 0.0142238f
c_24 C VSS 0.0177528f
c_35 NET4 VSS 0.676925f
c_39 NET5 VSS 0.677206f
*
.include "NAND3.pex.netlist.NAND3.pxi"
*
.ends
*
*
